SOLUTION_MASTER_SPECIES
O	H2O	0.0	15.9994	15.9994
Al	Al+3	0.0	26.9815	26.9815
Ba	Ba+2	0.0	137.327	137.327
Br	Br-	0.0	79.904	79.904
C	HCO3-	0.0	12.011	12.011
Ca	Ca+2	0.0	40.078	40.078
Cl	Cl-	0.0	35.4527	35.4527
Cr	Cr+3	0.0	51.9961	51.9961
Cs	Cs+	0.0	132.905	132.905
F	F-	0.0	18.9984	18.9984
Fe	Fe+2	0.0	55.847	55.847
H	H+	0.0	1.00794	1.00794
I	I-	0.0	126.904	126.904
K	K+	0.0	39.0983	39.0983
Li	Li+	0.0	6.941	6.941
Mg	Mg+2	0.0	24.305	24.305
Mn	Mn+2	0.0	54.938	54.938
Mo	MoO4-2	0.0	95.94	95.94
N	NO3-	0.0	14.0067	14.0067
Na	Na+	0.0	22.9898	22.9898
P	HPO4-2	0.0	30.9738	30.9738
S	SO4-2	0.0	32.066	32.066
Si	SiO2	0.0	28.0855	28.0855
Sr	Sr+2	0.0	87.62	87.62
B	B(OH)3	0.0	10.811	10.811
Co	Co+2	0.0	58.9332	58.9332
Cu	Cu+2	0.0	63.546	63.546
Ni	Ni+2	0.0	58.6934	58.6934
Zn	Zn+2	0.0	65.39	65.39
E	e-	0.0	0	0
O(-2)	H2O	0.0	0.0
H(1)	H+	-1.0	0.0
O(0)	O2	0.0	O
H(0)	H2	0.0	H
SOLUTION_SPECIES
H2O = H2O
	log_k	0.0
Al+3 = Al+3
	log_k	0.0
Ba+2 = Ba+2
	log_k	0.0
Br- = Br-
	log_k	0.0
HCO3- = HCO3-
	log_k	0.0
Ca+2 = Ca+2
	log_k	0.0
Cl- = Cl-
	log_k	0.0
Cr+3 = Cr+3
	log_k	0.0
Cs+ = Cs+
	log_k	0.0
F- = F-
	log_k	0.0
Fe+2 = Fe+2
	log_k	0.0
H+ = H+
	log_k	0.0
I- = I-
	log_k	0.0
K+ = K+
	log_k	0.0
Li+ = Li+
	log_k	0.0
Mg+2 = Mg+2
	log_k	0.0
Mn+2 = Mn+2
	log_k	0.0
MoO4-2 = MoO4-2
	log_k	0.0
NO3- = NO3-
	log_k	0.0
Na+ = Na+
	log_k	0.0
HPO4-2 = HPO4-2
	log_k	0.0
SO4-2 = SO4-2
	log_k	0.0
SiO2 = SiO2
	log_k	0.0
Sr+2 = Sr+2
	log_k	0.0
B(OH)3 = B(OH)3
	log_k	0.0
Co+2 = Co+2
	log_k	0.0
Cu+2 = Cu+2
	log_k	0.0
Ni+2 = Ni+2
	log_k	0.0
Zn+2 = Zn+2
	log_k	0.0
e- = e-
	log_k	0.0
Cl- + 4 H2O = ClO4- + 8 e- + 8 H+
	logk	-187.717
	-analytical	98.3626	0.00897085	-57720	-38.4526	-901.663
Cr+3 + 4 H2O = CrO4-- + 8 H+ + 3 e-
	logk	-74.218
	-analytical	35.5542	-0.0286437	-26783.2	-4.61493	-420.12
Fe+2 = Fe+++ + e-
	logk	-13.011
	-analytical	-43.28	-0.0126166	-463.442	14.3792	-7.61902
2 e- + 2 H+ = H2
	logk	-3.1047
	-analytical	-44.4193	0.0008034	332.449	16.1517	5.85343
HPO4-2 + 2 e- + 2 H+ = HPO3-- + H2O
	logk	-7.0529
	-analytical	-44.9263	-0.000730404	-1740.87	17.7552	-26.6891
9 H+ + SO4-2 + 8 e- = HS- + 4 H2O
	logk	33.6909
	-analytical	-20.9734	0.0282619	8351.27	7.37542	132.989
Mn+2 = Mn+++ + e-
	logk	-25.5088
	-analytical	-30.985	-0.0118433	-3758.26	8.73221	-59.0759
Mn+2 + 4 H2O = MnO4-- + 8 H+ + 4 e-
	logk	-118.345
	-analytical	5.68483	-0.0404547	-36066.9	3.62834	-565.402
10 H+ + NO3- + 8 e- = NH4+ + 3 H2O
	logk	119.149
	-analytical	-27.4421	0.0202152	35667	8.46459	558.747
NO3- + 2 e- + 2 H+ = NO2- + H2O
	logk	27.7671
	-analytical	-18.8877	-0.000839634	8453.33	7.49673	132.138
SO4-2 + 2 e- + 2 H+ = SO3-- + H2O
	logk	-3.6224
	-analytical	-27.6927	-0.00236598	-285.739	10.4006	-4.10093
7 H+ + B(OH)3 + 8 e- = BH4- + 3 H2O
	logk	-65.0961
	-analytical	-190.98	-0.0367462	-15374.9	76.1353	-240.047
HPO4-2 = PO4-3 + H+
	logk	-12.3218
	-analytical	-59.3704	-0.0321228	-524.014	23.5855	-9.61634
2 H2O = O2 + 4 e- + 4 H+
	logk	-86.0039
	-analytical	1.05677	0.00424712	-25007.3	-1.79339	-390.168
H2O = OH- + H+
	logk	-13.9951
	-analytical	-67.5047	-0.0306179	-1990.13	28.0036	-32.4111
HCO3- = CO3-2 + H+
	logk	-10.3288
	-analytical	-69.9531	-0.0335248	-70.9884	28.2225	-2.60731
Al+3 + 2 H2O = AlO2- + 4 H+
	logk	-22.879
Al+3 + H2O = AlOH+2 + H+
	logk	-4.957
Al+3 + H2O = AlO+ + 2 H+
	logk	-10.594
Al+3 + 2 H2O = HAlO2 + 3 H+
	logk	-16.432
Al+3 + F- = AlF+2
	logk	7
Al+3 + 2 F- = AlF2+
	logk	12.6
Al+3 + 3 F- = AlF3
	logk	16.7
Al+3 + 4 F- = AlF4-
	logk	19.4
H2O + B(OH)3 = B(OH)4- + H+
	logk	-9.239
3 B(OH)3 = B3O3(OH)4- + 2 H2O + H+
	logk	-7.6188
4 B(OH)3 = B4O5(OH)4-2 + 3 H2O + 2 H+
	logk	-16.2554
Ca+2 + B(OH)3 + H2O = CaB(OH)4+ + H+
	logk	-7.5886
Ca+2 + HCO3- = CaCO3 + H+
	logk	-7.0017
	-analytical	236.013	0.0560188	-8711.9	-93.1438	-134.632
Ca+2 + H2O = CaOH+ + H+
	logk	-12.8333
	-analytical	57.5113	0.0114734	-5866.96	-21.8569	-91.3547
Ca+2 + SO4-2 = CaSO4
	logk	1.6503
	-analytical	559.886	0.138712	-17440.1	-218.656	-279.955
Ca+2 + Cl- = CaCl+
	logk	-0.7659
	-analytical	-12.4607	0.020884	1632.89	-0.00354466	26.5103
Ca+2 + 2 Cl- = CaCl2
	logk	-16.4677
	-analytical	42.4008	-0.0281976	-15074.2	0.040552	-244.698
H+ + HCO3- = CO2 + H2O
	logk	6.3447
	-analytical	-10.5326	0.0217452	2521.59	0.791018	40.7333
2 CrO4-2 + 2 H+ = Cr2O7-2 + H2O
	logk	14.7024
	-analytical	153.121	0.0684345	-1593.19	-62.0073	-21.8141
Cl- + Fe+2 = FeCl+
	logk	-0.1605
	-analytical	81.4828	0.0375106	-1449.35	-35.5403	-21.0568
Fe+2 + HCO3- = FeHCO3+
	logk	1.47
Fe+2 + HCO3- = FeCO3 + H+
	logk	-4.8788
Fe+2 + 2 CO3-2 = Fe(CO3)2-2
	logk	7.16
Fe+2 + H2O = FeOH+ + H+
	logk	-9.51
Fe+2 + 2 H2O = Fe(OH)2 + 2 H+
	logk	-20.61
Fe+3 + H2O = FeOH+2 + H+
	logk	-2.1
Fe+3 + 2 H2O = Fe(OH)2+ + 2 H+
	logk	-6.3
Fe+3 + 3 H2O = Fe(OH)3 + 3 H+
	logk	-14.3
Fe+3 + 4 H2O = Fe(OH)4- + 4 H+
	logk	-22.3
Fe+3 + SO4-2 = FeSO4+
	logk	4.27
Fe+3 + 2 SO4-2 = Fe(SO4)2-
	logk	6.11
Cl- + Fe+3 = FeCl+2
	logk	1.28
2 Cl- + Fe+3 = FeCl2+
	logk	1.16
F- + Fe+2 = FeF+
	logk	1.4272
	-analytical	93.8061	0.0389135	-1761.64	-39.6238	-25.8207
F- + Fe+3 = FeF+2
	logk	6.03
Fe+3 + 2 F- = FeF2+
	logk	10.66
H+ + SO4-2 = HSO4-
	logk	1.9791
	-analytical	49.615	0.0303676	-1155.72	-21.3332	-16.3809
H2O + SiO2 = HSiO3- + H+
	logk	-9.8419
	-analytical	-105.911	-0.0389391	639.77	42.6507	9.89524
H+ + HPO4-2 = H2PO4-
	logk	7.2054
	-analytical	82.1441	0.0340763	-1042.97	-32.9686	-14.8494
HPO4-2 + 2 H+ = H3PO4
	logk	9.3751
	-analytical	183.79	0.0673192	-3778.88	-73.4595	-56.2133
HCO3- + Mg+2 = MgCO3 + H+
	logk	-7.3499
	-analytical	240.251	0.0562181	-8602.15	-95.1687	-132.792
HCO3- + Mg+2 = MgHCO3+
	logk	1.0357
	-analytical	42.6713	0.0302909	-76.1074	-20.3612	0.594294
H2O + Mg+2 = MgOH+ + H+
	logk	-11.6825
	-analytical	-1.23462	0.00322632	-3070.18	-0.445617	-47.4202
NH4+ = NH3 + H+
	logk	-9.241
	-analytical	14.5234	0.00505255	-3044.62	-6.08535	-47.4222
Mg+2 + B(OH)3 + H2O = MgB(OH)4+ + H+
	logk	-7.8397
CrO4-2 + Ni+2 = NiCrO4
	logk	2.4
CrO4-2 + 2 H+ = H2CrO4
	logk	6.31
CrO4-2 + H+ = HCrO4-
	logk	6.5238
	-analytical	74.9937	0.0356022	-1012.39	-30.5783	-14.1396
Br- + Cr+3 = CrBr+2
	logk	-4.7427
	-analytical	76.6031	0.0381767	-3303	-32.9854	-49.7402
Cr+3 + H2O = CrOH+2 + H+
	logk	-3.57
Cr+3 + 2 H2O = Cr(OH)2+ + 2 H+
	logk	-9.84
Cr+3 + 3 H2O = Cr(OH)3 + 3 H+
	logk	-16.19
Cr+3 + 4 H2O = Cr(OH)4- + 4 H+
	logk	-27.65
2 Cr+3 + 6 H2O = Cr2O2(OH)4-2 + 8 H+
	logk	-51.9302
H2O + Ni+2 = NiOH+ + H+
	logk	-9.5
Ni+2 + 2 H2O = Ni(OH)2 + 2 H+
	logk	-18
Ni+2 + 3 H2O = Ni(OH)3- + 3 H+
	logk	-29.7
Ni+2 + 4 H2O = Ni(OH)4-2 + 4 H+
	logk	-44.96
Br- + Ni+2 = NiBr+
	logk	-0.37
Ni+2 + HCO3- = NiCO3 + H+
	logk	-6.3288
F- + Ni+2 = NiF+
	logk	1.12
	-analytical	102.353	0.0397234	-2187.25	-42.7229	-32.4787
HCO3- + Ni+2 = NiHCO3+
	logk	1
Ni+2 + HPO4-2 = NiHPO4
	logk	2.934
Ni+2 + HPO4-2 + H+ = NiH2PO4+
	logk	8.7494
Ni+2 + PO4-3 = NiPO4-
	logk	8.374
H+ + Ni+2 + 2 HPO4-2 = NiHP2O7- + H2O
	logk	9.268
2 HPO4-2 + Ni+2 = NiP2O7-2 + H2O
	logk	3.088
NO3- + Ni+2 = NiNO3+
	logk	0.1463
	-analytical	149.894	0.0452863	-4225.55	-60.2379	-64.462
PITZER
-ALPHAS
Ca+2	Br-	2	12
Ca+2	Cl-	2	12
CaCl+	Cl-	2	12
Ca+2	NO3-	0.87	12
Ca+2	HSO4-	2	12
Ca+2	I-	2	12
Ca+2	SO4-2	1.4	12
Cs+	Br-	2	12
Cs+	Cl-	2	12
Cs+	F-	2	12
Cs+	I-	2	12
Cs+	NO3-	2	12
Cs+	OH-	2	12
Cs+	SO4-2	2	12
H+	Br-	2	12
H+	Cl-	2	12
H+	HSO4-	2	12
H+	I-	2	12
H+	NO3-	2	12
H+	SO4-2	2	12
K+	Br-	2	12
K+	Cl-	2	12
K+	CO3-2	2	12
K+	F-	2	12
K+	HCO3-	2	12
K+	HPO4-2	2	12
K+	HSO4-	2	12
K+	I-	2	12
K+	NO3-	2	12
K+	OH-	2	12
K+	SO4-2	2	12
Li+	Br-	2	12
Li+	Cl-	2	12
Li+	I-	2	12
Li+	NO3-	2	12
Li+	OH-	2	12
Li+	SO4-2	2	12
Mg+2	Br-	2	12
Mg+2	Cl-	2	12
Mg+2	HCO3-	2	12
Mg+2	HSO4-	2	12
Mg+2	I-	2	12
Mg+2	NO3-	1.55	12
Mg+2	SO4-2	1.4	12
Mn+2	Br-	2	12
Mn+2	ClO4-	2	12
MgOH+	Cl-	2	12
Na+	AlO2-	2	12
Na+	Br-	2	12
Na+	Cl-	2	12
Na+	CO3-2	2	12
Na+	F-	2	12
Na+	HCO3-	2	12
Na+	HPO4-2	2	12
Na+	H2PO4-	2	12
Na+	HSO4-	2	12
Na+	I-	2	12
Na+	NO3-	1.43	12
Na+	OH-	2	12
Na+	SO4-2	2	12
NH4+	Br-	2	12
NH4+	Cl-	2	12
NH4+	HCO3-	2	12
NH4+	I-	2	12
NH4+	NO3-	2	12
NH4+	SO4-2	2	12
Sr+2	Br-	2	12
Sr+2	Cl-	2	12
Sr+2	I-	2	12
Sr+2	NO3-	2	12
Al+3	Cl-	2	12
Ba+2	Cl-	2	12
Ba+2	Br-	2	12
Ba+2	I-	2	12
Ba+2	OH-	2	12
Ba+2	ClO4-	2	12
Ba+2	NO3-	2	12
CaB(OH)4+	Cl-	2	12
Ca+2	ClO4-	2	12
Ca+2	MoO4-2	2	12
Co+2	Cl-	2	12
Co+2	ClO4-	2	12
Co+2	Br-	2	12
Co+2	I-	2	12
Co+2	NO3-	2	12
Co+2	SO4-2	1.4	12
Cr+3	Cl-	2	12
Cr+3	NO3-	2	12
Na+	Cr(OH)4-	2	12
Na+	Cr2O2(OH)4-2	2	12
K+	Cr2O7-2	1.4	12
Cu+2	Cl-	2	12
Cu+2	NO3-	2	12
Cu+2	SO4-2	1.4	12
Cu+2	HSO4-	2	12
Cu+2	Br-	2	12
Cu+2	ClO4-	2	12
Fe+2	Cl-	2	12
H+	ClO4-	2	12
K+	CrO4-2	2	12
K+	PO4-3	2	12
K+	B(OH)4-	2	12
K+	B3O3(OH)4-	2	12
K+	B4O5(OH)4-2	2	12
Mn+2	Cl-	2	12
Mn+2	SO4-2	1.4	12
MgB(OH)4+	Cl-	2	12
Na+	ClO4-	2	12
Na+	B(OH)4-	2	12
Na+	B3O3(OH)4-	2	12
Na+	B4O5(OH)4-2	2	12
Na+	PO4-3	2	12
Na+	MoO4-2	2	12
Na+	CrO4-2	2	12
Ni+2	ClO4-	2	12
Ni+2	Cl-	2	12
Ni+2	Br-	2	12
Ni+2	NO3-	2	12
Ni+2	SO4-2	1.4	12
Fe+2	SO4-2	1.4	12
Fe+3	ClO4-	2	12
Zn+2	Cl-	2	12
Zn+2	Br-	2	12
Zn+2	I-	2	12
Zn+2	NO3-	2	12
Zn+2	ClO4-	2	12
Zn+2	SO4-2	1.4	12
-B0
Ca+2	Br-	0.3816	0	0	0	0
Ca+2	Cl-	0.303822	78.1786	1.45519e-011	0.000357022	0
CaCl+	Cl-	0.356841	22.3581	1.45519e-011	-0.000839061	0
Ca+2	NO3-	0.125912	144.214	0.520996	-0.000477655	0
Ca+2	HSO4-	0.2145	0	0	0	0
Ca+2	I-	0.4379	0	0	0	0
Ca+2	SO4-2	0.15	0	0	0	0
Cs+	Br-	0.0255603	-34.4283	-3.63798e-012	1.06581e-014	0
Cs+	Cl-	0.0329801	-539.761	-2.42136	0.00272852	0
Cs+	F-	0.1306	0	0	0	0
Cs+	I-	0.0244	0	0	0	0
Cs+	NO3-	-0.0758	0	0	0	0
Cs+	OH-	0.15	0	0	0	0
Cs+	SO4-2	0.0714	0	0	0	0
H+	Br-	0.2085	0	0	0	0
H+	Cl-	0.177001	-33.4777	-0.262215	0.000125778	0
H+	HSO4-	0.209089	1054.54	5.95728	-0.00877592	0
H+	I-	0.2211	0	0	0	0
H+	NO3-	0.125585	560.12	4.91603	-0.0099509	0
H+	SO4-2	0.0986192	-6703.44	-41.6862	0.0636777	0
K+	Br-	0.0526049	-938.817	-4.4303	0.00524879	0
K+	Cl-	0.0477812	-343.299	-1.38219	0.00134298	0
K+	CO3-2	0.1288	0	0	0	0
K+	F-	0.08089	0	0	0	0
K+	HCO3-	-0.0107	0	0	0	0
K+	HPO4-2	0.0248	0	0	0	0
K+	HSO4-	-0.0003	0	0	0	0
K+	I-	0.0746	0	0	0	0
K+	NO3-	-0.0816	0	0	0	0
K+	OH-	0.1298	0	0	0	0
K+	SO4-2	0.0555358	-1418.43	-6.74729	0.00826907	0
Li+	Br-	0.172803	3.72529e-009	1.45519e-011	-0.000106042	0
Li+	Cl-	0.14847	1.86265e-009	0	-0.0001546	0
Li+	I-	0.2104	0	0	0	0
Li+	NO3-	0.142	0	0	0	0
Li+	OH-	0.015	0	0	0	0
Li+	SO4-2	0.1363	0	0	0	0
Mg+2	Br-	0.4327	0	0	0	0
Mg+2	Cl-	0.351136	-65.5822	-0.525061	0.000447185	0
Mg+2	HCO3-	0.033	0	0	0	0
Mg+2	HSO4-	0.4746	0	0	0	0
Mg+2	I-	0.4902	0	0	0	0
Mg+2	NO3-	0.306728	0	0	0	0
Mg+2	SO4-2	0.222818	-5688.19	-32.8401	0.0473379	0
Mn+2	Br-	0.44655	0	0	0	0
Mn+2	ClO4-	0.50957	0	0	0	0
MgOH+	Cl-	-0.1	0	0	0	0
Na+	AlO2-	0.0452319	-1545.73	-8.3136	0.0110572	0
Na+	Br-	0.0973867	-210.646	-0.395939	-0.000283574	0
Na+	Cl-	0.0745618	-470.789	-1.85114	0.00165565	0
Na+	CO3-2	0.0362048	1108.38	11.1986	-0.0233017	0
Na+	F-	0.0215	0	0	0	0
Na+	HCO3-	0.0280021	682.886	6.89959	-0.0144593	0
Na+	HPO4-2	-0.0583	0	0	0	0
Na+	H2PO4-	-0.0533	0	0	0	0
Na+	HSO4-	0.0734349	52.5606	0.420809	-0.000821232	0
Na+	I-	0.1195	0	0	0	0
Na+	NO3-	-0.00129331	-482.73	-2.21016	0.00254084	0
Na+	OH-	0.0883444	-1197.85	-6.10983	0.00743325	0
Na+	SO4-2	0.0120596	-2189.43	-10.1448	0.0119724	0
NH4+	Br-	0.0624	0	0	0	0
NH4+	Cl-	0.0524921	-216.413	-0.973041	0.00106115	0
NH4+	HCO3-	-0.038	0	0	0	0
NH4+	I-	0.057	0	0	0	0
NH4+	NO3-	-0.0154	0	0	0	0
NH4+	SO4-2	0.0391673	313.414	2.51504	-0.0044742	0
Sr+2	Br-	0.3311	0	0	0	0
Sr+2	Cl-	0.2834	0	0	0	0
Sr+2	I-	0.4013	0	0	0	0
Sr+2	NO3-	0.1346	0	0	0	0
Al+3	Cl-	0.6993	0	0	0	0
Ba+2	Cl-	0.2628	0	0	0	0
Ba+2	Br-	0.3146	0	0	0	0
Ba+2	I-	0.4219	0	0	0	0
Ba+2	OH-	0.1718	0	0	0	0
Ba+2	ClO4-	0.3614	0	0	0	0
Ba+2	NO3-	-0.0323	0	0	0	0
CaB(OH)4+	Cl-	0.12	0	0	0	0
Ca+2	ClO4-	0.4511	0	0	0	0
Ca+2	MoO4-2	0.2	0	0	0	0
Co+2	Cl-	0.37351	0	0	0	0
Co+2	ClO4-	0.50409	0	0	0	0
Co+2	Br-	0.427	0	0	0	0
Co+2	I-	0.5213	0	0	0	0
Co+2	NO3-	0.3119	0	0	0	0
Co+2	SO4-2	0.2	0	0	0	0
Cr+3	Cl-	0.72234	0	0	0	0
Cr+3	NO3-	0.704	0	0	0	0
Na+	Cr(OH)4-	0.045	0	0	0	0
Na+	Cr2O2(OH)4-2	0.41	0	0	0	0
K+	Cr2O7-2	-2.1239	0	0	0	0
Cu+2	Cl-	0.23052	0	0	0	0
Cu+2	NO3-	0.28124	0	0	0	0
Cu+2	SO4-2	0.2358	0	0	0	0
Cu+2	HSO4-	0.4755	0	0	0	0
Cu+2	Br-	0.41247	0	0	0	0
Cu+2	ClO4-	0.48984	0	0	0	0
Fe+2	Cl-	0.3359	0	0	0	0
H+	ClO4-	0.1747	0	0	0	0
K+	CrO4-2	0.0791	0	0	0	0
K+	PO4-3	0.3729	0	0	0	0
K+	B(OH)4-	0.035	0	0	0	0
K+	B3O3(OH)4-	-0.13	0	0	0	0
K+	B4O5(OH)4-2	-0.022	0	0	0	0
Mn+2	Cl-	0.29486	0	0	0	0
Mn+2	SO4-2	0.201	0	0	0	0
MgB(OH)4+	Cl-	0.16	0	0	0	0
Na+	ClO4-	0.0554	0	0	0	0
Na+	B(OH)4-	-0.0427	0	0	0	0
Na+	B3O3(OH)4-	-0.056	0	0	0	0
Na+	B4O5(OH)4-2	-0.11	0	0	0	0
Na+	PO4-3	0.1781	0	0	0	0
Na+	MoO4-2	0.116	0	0	0	0
Na+	CrO4-2	0.0645	0	0	0	0
Ni+2	ClO4-	0.49285	0	0	0	0
Ni+2	Cl-	0.3499	0	0	0	0
Ni+2	Br-	0.4451	0	0	0	0
Ni+2	NO3-	0.30978	0	0	0	0
Ni+2	SO4-2	0.1702	0	0	0	0
Fe+2	SO4-2	0.2568	0	0	0	0
Fe+3	ClO4-	1.412	0	0	0	0
Zn+2	Cl-	0.2602	0	0	0	0
Zn+2	Br-	0.466	0	0	0	0
Zn+2	I-	0.4821	0	0	0	0
Zn+2	NO3-	0.3481	0	0	0	0
Zn+2	ClO4-	0.506	0	0	0	0
Zn+2	SO4-2	0.1949	0	0	0	0
-B1
Ca+2	Br-	1.6133	0	0	0	0
Ca+2	Cl-	1.70143	-148.325	1.16415e-010	0.00505789	0
CaCl+	Cl-	4.81235	3865.29	4.65661e-010	0.0112332	0
Ca+2	NO3-	0.402371	-3219.15	-8.98838	0.00373059	0
Ca+2	HSO4-	2.5275	0	0	0	0
Ca+2	I-	1.8068	0	0	0	0
Ca+2	SO4-2	3	0	0	0	0
Cs+	Br-	0.0284193	-338.671	-1.45519e-011	5.68434e-014	0
Cs+	Cl-	0.0429	-38	1.45519e-011	0.001306	0
Cs+	F-	0.257	0	0	0	0
Cs+	I-	0.0262	0	0	0	0
Cs+	NO3-	-0.0669	0	0	0	0
Cs+	OH-	0.3	0	0	0	0
Cs+	SO4-2	1.2008	0	0	0	0
H+	Br-	0.3477	0	0	0	0
H+	Cl-	0.292923	3402.47	19.7936	-0.0279388	0
H+	HSO4-	0.440922	296.437	2.37333	-0.00463168	0
H+	I-	0.4907	0	0	0	0
H+	NO3-	0.287782	2.71242e-007	1.58606e-009	0.0013396	0
H+	SO4-2	0	0	0	0	0
K+	Br-	0.235353	2489.76	12.542	-0.013415	0
K+	Cl-	0.215511	-576.388	-2.88017	0.00464483	0
K+	CO3-2	1.4333	0	0	0	0
K+	F-	0.2021	0	0	0	0
K+	HCO3-	0.0478	0	0	0	0
K+	HPO4-2	1.2743	0	0	0	0
K+	HSO4-	0.1735	0	0	0	0
K+	I-	0.2517	0	0	0	0
K+	NO3-	0.0494	0	0	0	0
K+	OH-	0.32	0	0	0	0
K+	SO4-2	0.796385	2067.13	2.32831e-010	0.0235793	0
Li+	Br-	0.297759	990.383	5.60773	-0.00697051	0
Li+	Cl-	0.307	7.45058e-009	2.91038e-011	0.000636	0
Li+	I-	0.373	0	0	0	0
Li+	NO3-	0.278	0	0	0	0
Li+	OH-	0.14	0	0	0	0
Li+	SO4-2	1.2705	0	0	0	0
Mg+2	Br-	1.7528	0	0	0	0
Mg+2	Cl-	1.65325	-2872.88	-23.0007	0.0494573	0
Mg+2	HCO3-	0.8498	0	0	0	0
Mg+2	HSO4-	1.7288	0	0	0	0
Mg+2	I-	1.8041	0	0	0	0
Mg+2	NO3-	1.25745	0	0	0	0
Mg+2	SO4-2	3.37713	-23184	-139.335	0.217921	0
Mn+2	Br-	1.34477	0	0	0	0
Mn+2	ClO4-	2.16209	0	0	0	0
MgOH+	Cl-	1.658	0	0	0	0
Na+	AlO2-	0.30666	-4913.33	-28.5581	0.0416055	0
Na+	Br-	0.297015	-6335.18	-37.5077	0.0558804	0
Na+	Cl-	0.275241	-521.118	-2.88036	0.00471463	0
Na+	CO3-2	1.51207	4412.51	44.5821	-0.0998912	0
Na+	F-	0.2107	0	0	0	0
Na+	HCO3-	0.0440052	1129.39	11.4109	-0.0244673	0
Na+	HPO4-2	1.4655	0	0	0	0
Na+	H2PO4-	0.0396	0	0	0	0
Na+	HSO4-	0.299943	4698.12	26.8475	-0.0373912	0
Na+	I-	0.3439	0	0	0	0
Na+	NO3-	0.141301	-2759.36	-13.3527	0.0180629	0
Na+	OH-	0.244421	1627.03	9.4825	-0.0115789	0
Na+	SO4-2	1.11538	-12744.2	-67.1934	0.0891223	0
NH4+	Br-	0.1947	0	0	0	0
NH4+	Cl-	0.187339	0	-0.142555	0.00109395	0
NH4+	HCO3-	0.07	0	0	0	0
NH4+	I-	0.3157	0	0	0	0
NH4+	NO3-	0.112	0	0	0	0
NH4+	SO4-2	0.662847	37708.8	255.814	-0.422218	0
Sr+2	Br-	1.7115	0	0	0	0
Sr+2	Cl-	1.6256	0	0	0	0
Sr+2	I-	1.86	0	0	0	0
Sr+2	NO3-	1.38	0	0	0	0
Al+3	Cl-	5.8447	0	0	0	0
Ba+2	Cl-	1.4963	0	0	0	0
Ba+2	Br-	1.5698	0	0	0	0
Ba+2	I-	1.6868	0	0	0	0
Ba+2	OH-	1.2	0	0	0	0
Ba+2	ClO4-	1.5758	0	0	0	0
Ba+2	NO3-	0.8025	0	0	0	0
CaB(OH)4+	Cl-	0	0	0	0	0
Ca+2	ClO4-	1.757	0	0	0	0
Ca+2	MoO4-2	3.1973	0	0	0	0
Co+2	Cl-	1.25999	0	0	0	0
Co+2	ClO4-	1.96664	0	0	0	0
Co+2	Br-	1.6598	0	0	0	0
Co+2	I-	1.6725	0	0	0	0
Co+2	NO3-	1.6905	0	0	0	0
Co+2	SO4-2	2.7	0	0	0	0
Cr+3	Cl-	5.5989	0	0	0	0
Cr+3	NO3-	5.1847	0	0	0	0
Na+	Cr(OH)4-	0.31	0	0	0	0
Na+	Cr2O2(OH)4-2	0.7	0	0	0	0
K+	Cr2O7-2	6.3443	0	0	0	0
Cu+2	Cl-	2.20897	0	0	0	0
Cu+2	NO3-	1.72906	0	0	0	0
Cu+2	SO4-2	2.485	0	0	0	0
Cu+2	HSO4-	2.428	0	0	0	0
Cu+2	Br-	1.6627	0	0	0	0
Cu+2	ClO4-	1.90361	0	0	0	0
Fe+2	Cl-	1.5323	0	0	0	0
H+	ClO4-	0.2931	0	0	0	0
K+	CrO4-2	1.113	0	0	0	0
K+	PO4-3	3.972	0	0	0	0
K+	B(OH)4-	0.14	0	0	0	0
K+	B3O3(OH)4-	0	0	0	0	0
K+	B4O5(OH)4-2	0	0	0	0	0
Mn+2	Cl-	2.01251	0	0	0	0
Mn+2	SO4-2	2.98	0	0	0	0
MgB(OH)4+	Cl-	0	0	0	0	0
Na+	ClO4-	0.2755	0	0	0	0
Na+	B(OH)4-	0.089	0	0	0	0
Na+	B3O3(OH)4-	-0.91	0	0	0	0
Na+	B4O5(OH)4-2	-0.4	0	0	0	0
Na+	PO4-3	3.8513	0	0	0	0
Na+	MoO4-2	2.287	0	0	0	0
Na+	CrO4-2	1.5974	0	0	0	0
Ni+2	ClO4-	1.98517	0	0	0	0
Ni+2	Cl-	1.53	0	0	0	0
Ni+2	Br-	1.49	0	0	0	0
Ni+2	NO3-	2.10644	0	0	0	0
Ni+2	SO4-2	2.907	0	0	0	0
Fe+2	SO4-2	3.063	0	0	0	0
Fe+3	ClO4-	2.989	0	0	0	0
Zn+2	Cl-	1.6425	0	0	0	0
Zn+2	Br-	1.6343	0	0	0	0
Zn+2	I-	1.9455	0	0	0	0
Zn+2	NO3-	1.6913	0	0	0	0
Zn+2	ClO4-	1.797	0	0	0	0
Zn+2	SO4-2	2.883	0	0	0	0
-B2
Ca+2	Br-	0	0	0	0	0
Ca+2	Cl-	0	0	0	0	0
CaCl+	Cl-	0	0	0	0	0
Ca+2	NO3-	0	0	0	0	0
Ca+2	HSO4-	0	0	0	0	0
Ca+2	I-	0	0	0	0	0
Ca+2	SO4-2	0	0	0	0	0
Cs+	Br-	0	0	0	0	0
Cs+	Cl-	0	0	0	0	0
Cs+	F-	0	0	0	0	0
Cs+	I-	0	0	0	0	0
Cs+	NO3-	0	0	0	0	0
Cs+	OH-	0	0	0	0	0
Cs+	SO4-2	0	0	0	0	0
H+	Br-	0	0	0	0	0
H+	Cl-	0	0	0	0	0
H+	HSO4-	0	0	0	0	0
H+	I-	0	0	0	0	0
H+	NO3-	0	0	0	0	0
H+	SO4-2	0	0	0	0	0
K+	Br-	0	0	0	0	0
K+	Cl-	0	0	0	0	0
K+	CO3-2	0	0	0	0	0
K+	F-	0	0	0	0	0
K+	HCO3-	0	0	0	0	0
K+	HPO4-2	0	0	0	0	0
K+	HSO4-	0	0	0	0	0
K+	I-	0	0	0	0	0
K+	NO3-	0	0	0	0	0
K+	OH-	0	0	0	0	0
K+	SO4-2	0	0	0	0	0
Li+	Br-	0	0	0	0	0
Li+	Cl-	0	0	0	0	0
Li+	I-	0	0	0	0	0
Li+	NO3-	0	0	0	0	0
Li+	OH-	0	0	0	0	0
Li+	SO4-2	0	0	0	0	0
Mg+2	Br-	0	0	0	0	0
Mg+2	Cl-	0	0	0	0	0
Mg+2	HCO3-	0	0	0	0	0
Mg+2	HSO4-	0	0	0	0	0
Mg+2	I-	0	0	0	0	0
Mg+2	NO3-	0	0	0	0	0
Mg+2	SO4-2	-35.2588	2.17039e+006	13998.3	-22.8323	0
Mn+2	Br-	0	0	0	0	0
Mn+2	ClO4-	0	0	0	0	0
MgOH+	Cl-	0	0	0	0	0
Na+	AlO2-	0	0	0	0	0
Na+	Br-	0	0	0	0	0
Na+	Cl-	0	0	0	0	0
Na+	CO3-2	0	0	0	0	0
Na+	F-	0	0	0	0	0
Na+	HCO3-	0	0	0	0	0
Na+	HPO4-2	0	0	0	0	0
Na+	H2PO4-	0	0	0	0	0
Na+	HSO4-	0	0	0	0	0
Na+	I-	0	0	0	0	0
Na+	NO3-	0	0	0	0	0
Na+	OH-	0	0	0	0	0
Na+	SO4-2	0	0	0	0	0
NH4+	Br-	0	0	0	0	0
NH4+	Cl-	0	0	0	0	0
NH4+	HCO3-	0	0	0	0	0
NH4+	I-	0	0	0	0	0
NH4+	NO3-	0	0	0	0	0
NH4+	SO4-2	0	0	0	0	0
Sr+2	Br-	0	0	0	0	0
Sr+2	Cl-	0	0	0	0	0
Sr+2	I-	0	0	0	0	0
Sr+2	NO3-	0	0	0	0	0
Al+3	Cl-	0	0	0	0	0
Ba+2	Cl-	0	0	0	0	0
Ba+2	Br-	0	0	0	0	0
Ba+2	I-	0	0	0	0	0
Ba+2	OH-	0	0	0	0	0
Ba+2	ClO4-	0	0	0	0	0
Ba+2	NO3-	0	0	0	0	0
CaB(OH)4+	Cl-	0	0	0	0	0
Ca+2	ClO4-	0	0	0	0	0
Ca+2	MoO4-2	-54.24	0	0	0	0
Co+2	Cl-	0	0	0	0	0
Co+2	ClO4-	0	0	0	0	0
Co+2	Br-	0	0	0	0	0
Co+2	I-	0	0	0	0	0
Co+2	NO3-	0	0	0	0	0
Co+2	SO4-2	-30.7	0	0	0	0
Cr+3	Cl-	0	0	0	0	0
Cr+3	NO3-	0	0	0	0	0
Na+	Cr(OH)4-	0	0	0	0	0
Na+	Cr2O2(OH)4-2	0	0	0	0	0
K+	Cr2O7-2	25.9183	0	0	0	0
Cu+2	Cl-	0	0	0	0	0
Cu+2	NO3-	0	0	0	0	0
Cu+2	SO4-2	-47.35	0	0	0	0
Cu+2	HSO4-	0	0	0	0	0
Cu+2	Br-	0	0	0	0	0
Cu+2	ClO4-	0	0	0	0	0
Fe+2	Cl-	0	0	0	0	0
H+	ClO4-	0	0	0	0	0
K+	CrO4-2	0	0	0	0	0
K+	PO4-3	0	0	0	0	0
K+	B(OH)4-	0	0	0	0	0
K+	B3O3(OH)4-	0	0	0	0	0
K+	B4O5(OH)4-2	0	0	0	0	0
Mn+2	Cl-	0	0	0	0	0
Mn+2	SO4-2	-40	0	0	0	0
MgB(OH)4+	Cl-	0	0	0	0	0
Na+	ClO4-	0	0	0	0	0
Na+	B(OH)4-	0	0	0	0	0
Na+	B3O3(OH)4-	0	0	0	0	0
Na+	B4O5(OH)4-2	0	0	0	0	0
Na+	PO4-3	0	0	0	0	0
Na+	MoO4-2	0	0	0	0	0
Na+	CrO4-2	0	0	0	0	0
Ni+2	ClO4-	0	0	0	0	0
Ni+2	Cl-	0	0	0	0	0
Ni+2	Br-	0	0	0	0	0
Ni+2	NO3-	0	0	0	0	0
Ni+2	SO4-2	-40.06	0	0	0	0
Fe+2	SO4-2	-42	0	0	0	0
Fe+3	ClO4-	0	0	0	0	0
Zn+2	Cl-	0	0	0	0	0
Zn+2	Br-	0	0	0	0	0
Zn+2	I-	0	0	0	0	0
Zn+2	NO3-	0	0	0	0	0
Zn+2	ClO4-	0	0	0	0	0
Zn+2	SO4-2	-32.81	0	0	0	0
-C0
Ca+2	Br-	-0.0025721	0	0	0	0
Ca+2	Cl-	0.00117585	-2.49944	-2.27374e-013	-3.43691e-005	0
CaCl+	Cl-	-0.00677088	-1.41252	1.13687e-013	1.45678e-005	0
Ca+2	NO3-	-0.0026082	-29.6872	-0.162394	0.000220405	0
Ca+2	HSO4-	0	0	0	0	0
Ca+2	I-	-0.00083792	0	0	0	0
Ca+2	SO4-2	0	0	0	0	0
Cs+	Br-	0.000949401	52.6758	0.23335	-0.0002656	0
Cs+	Cl-	-0.000183801	48.4733	0.216077	-0.000239736	0
Cs+	F-	-0.0043	0	0	0	0
Cs+	I-	-0.00365	0	0	0	0
Cs+	NO3-	0	0	0	0	0
Cs+	OH-	0	0	0	0	0
Cs+	SO4-2	0.0029115	0	0	0	0
H+	Br-	0.00152	0	0	0	0
H+	Cl-	0.000362	-2.91038e-011	0	-3.036e-005	0
H+	HSO4-	0	0	0	0	0
H+	I-	0.00482	0	0	0	0
H+	NO3-	-0.00559627	-6.57638	-0.0577192	0.000110405	0
H+	SO4-2	0.0593003	-3029.55	-16.072	0.0202175	0
K+	Br-	-1.47498e-005	255.458	1.25575	-0.00152465	0
K+	Cl-	-0.000748605	36.5328	0.148205	-0.000147225	0
K+	CO3-2	0.00049851	0	0	0	0
K+	F-	0.00093	0	0	0	0
K+	HCO3-	0	0	0	0	0
K+	HPO4-2	0.016387	0	0	0	0
K+	HSO4-	0	0	0	0	0
K+	I-	-0.00414	0	0	0	0
K+	NO3-	0.0066	0	0	0	0
K+	OH-	0.0041	0	0	0	0
K+	SO4-2	-0.0188	0	9.09495e-013	-2.66454e-015	0
Li+	Br-	0.00476301	-92.5667	-0.462632	0.000524229	0
Li+	Cl-	0.00370971	4.52467	0.00327989	-8.61317e-006	0
Li+	I-	0	0	0	0	0
Li+	NO3-	-0.00551	0	0	0	0
Li+	OH-	0	0	0	0	0
Li+	SO4-2	-0.0039934	0	0	0	0
Mg+2	Br-	0.0031236	0	0	0	0
Mg+2	Cl-	0.00652611	-26.7038	-0.213795	0.000311488	0
Mg+2	HCO3-	0	0	0	0	0
Mg+2	HSO4-	0	0	0	0	0
Mg+2	I-	0.0079337	0	0	0	0
Mg+2	NO3-	-0.00332923	0	0	0	0
Mg+2	SO4-2	0.024365	1894.84	10.8446	-0.015634	0
Mn+2	Br-	-0.02269	0	0	0	0
Mn+2	ClO4-	0.01144	0	0	0	0
MgOH+	Cl-	0	0	0	0	0
Na+	AlO2-	-0.000303688	205.885	1.07578	-0.00143737	0
Na+	Br-	0.000749486	-14.2959	-0.165395	0.000305237	0
Na+	Cl-	0.00153693	48.0725	0.17468	-0.000156269	0
Na+	CO3-2	0.0052	0	0	8.88178e-016	0
Na+	F-	0	0	0	0	0
Na+	HCO3-	0	0	0	0	0
Na+	HPO4-2	0.02938	0	0	0	0
Na+	H2PO4-	0.00795	0	0	0	0
Na+	HSO4-	-0.00462067	-5.82077e-011	-2.27374e-013	6.82142e-006	0
Na+	I-	0.0018	0	0	0	0
Na+	NO3-	0.000320511	46.9542	0.224387	-0.000263788	0
Na+	OH-	0.00399944	88.2476	0.406876	-0.000475667	0
Na+	SO4-2	0.00657125	338.749	1.48134	-0.00164185	0
NH4+	Br-	-0.00436	0	0	0	0
NH4+	Cl-	-0.00307437	7.39922	0.0230712	-1.76252e-005	0
NH4+	HCO3-	0	0	0	0	0
NH4+	I-	-0.00308	0	0	0	0
NH4+	NO3-	-3e-005	0	0	0	0
NH4+	SO4-2	-0.000757091	-114.019	-0.75621	0.00120647	0
Sr+2	Br-	0.0012251	0	0	0	0
Sr+2	Cl-	-0.00089095	0	0	0	0
Sr+2	I-	0.002657	0	0	0	0
Sr+2	NO3-	-0.019925	0	0	0	0
Al+3	Cl-	0.00273	0	0	0	0
Ba+2	Cl-	-0.01938	0	0	0	0
Ba+2	Br-	-0.01596	0	0	0	0
Ba+2	I-	-0.01743	0	0	0	0
Ba+2	OH-	0	0	0	0	0
Ba+2	ClO4-	-0.03126	0	0	0	0
Ba+2	NO3-	0	0	0	0	0
CaB(OH)4+	Cl-	0	0	0	0	0
Ca+2	ClO4-	-0.005	0	0	0	0
Ca+2	MoO4-2	0	0	0	0	0
Co+2	Cl-	-0.01803	0	0	0	0
Co+2	ClO4-	0.01349	0	0	0	0
Co+2	Br-	-0.00067	0	0	0	0
Co+2	I-	-0.00467	0	0	0	0
Co+2	NO3-	-0.00762	0	0	0	0
Co+2	SO4-2	0	0	0	0	0
Cr+3	Cl-	-0.04141	0	0	0	0
Cr+3	NO3-	-0.05901	0	0	0	0
Na+	Cr(OH)4-	-0.003	0	0	0	0
Na+	Cr2O2(OH)4-2	-0.03768	0	0	0	0
K+	Cr2O7-2	1.6682	0	0	0	0
Cu+2	Cl-	-0.01639	0	0	0	0
Cu+2	NO3-	-0.00842	0	0	0	0
Cu+2	SO4-2	-0.0012	0	0	0	0
Cu+2	HSO4-	0	0	0	0	0
Cu+2	Br-	-0.04262	0	0	0	0
Cu+2	ClO4-	0.00839	0	0	0	0
Fe+2	Cl-	-0.00861	0	0	0	0
H+	ClO4-	0.00819	0	0	0	0
K+	CrO4-2	-0.0012	0	0	0	0
K+	PO4-3	-0.08679	0	0	0	0
K+	B(OH)4-	0	0	0	0	0
K+	B3O3(OH)4-	0	0	0	0	0
K+	B4O5(OH)4-2	0	0	0	0	0
Mn+2	Cl-	-0.01528	0	0	0	0
Mn+2	SO4-2	0.0182	0	0	0	0
MgB(OH)4+	Cl-	0	0	0	0	0
Na+	ClO4-	-0.00118	0	0	0	0
Na+	B(OH)4-	0.0114	0	0	0	0
Na+	B3O3(OH)4-	0	0	0	0	0
Na+	B4O5(OH)4-2	0	0	0	0	0
Na+	PO4-3	-0.051538	0	0	0	0
Na+	MoO4-2	0.006	0	0	0	0
Na+	CrO4-2	0.0094	0	0	0	0
Ni+2	ClO4-	0.01679	0	0	0	0
Ni+2	Cl-	-0.00471	0	0	0	0
Ni+2	Br-	-0.00626	0	0	0	0
Ni+2	NO3-	-0.00394	0	0	0	0
Ni+2	SO4-2	0.0366	0	0	0	0
Fe+2	SO4-2	0.0209	0	0	0	0
Fe+3	ClO4-	-0.462	0	0	0	0
Zn+2	Cl-	-0.08798	0	0	0	0
Zn+2	Br-	-0.10792	0	0	0	0
Zn+2	I-	-0.01427	0	0	0	0
Zn+2	NO3-	-0.01567	0	0	0	0
Zn+2	ClO4-	0.01132	0	0	0	0
Zn+2	SO4-2	0.029	0	0	0	0
-THETA
Ca+2	H+	0.092	0	0	0	0
Ca+2	K+	0.1156	9.31323e-010	0	1.42109e-014	0
Ca+2	Na+	0.05	1.86265e-009	7.27596e-012	0	0
Ca+2	Mg+2	0.007	0	0	0	0
Cs+	H+	-0.044	0	0	0	0
Cs+	K+	0	0	0	0	0
Cs+	Li+	-0.1242	0	0	0	0
Cs+	Na+	-0.03886	0	0	0	0
Cs+	Mg+2	-0.078	0	0	0	0
H+	K+	0.005	0	0	0	0
H+	Li+	0.015	0	0	0	0
H+	Mg+2	0.1	0	0	0	0
H+	Na+	0.036	0	0	0	0
H+	NH4+	-0.019	0	0	0	0
H+	Sr+2	0.0642	0	0	0	0
K+	Li+	-0.0563	0	0	0	0
K+	Mg+2	0	0	0	0	0
K+	Na+	-0.00320349	14.0213	9.09495e-013	-2.66454e-015	0
Li+	Na+	0.0029	0	0	0	0
Ba+2	H+	0.0991	0	0	0	0
Na+	Co+2	0.0382	0	0	0	0
Ca+2	Co+2	0.1722	0	0	0	0
Co+2	H+	0.0829	0	0	0	0
Co+2	K+	0.0559	0	0	0	0
Cr+3	K+	-0.07	0	0	0	0
Cu+2	K+	-0.16	0	0	0	0
Cu+2	Na+	0.037	0	0	0	0
Cu+2	H+	0.084	0	0	0	0
Mg+2	Na+	0.07	0	0	0	0
Na+	Mn+2	0.0907	0	0	0	0
Ni+2	H+	0.069	0	0	0	0
Ni+2	K+	0	0	0	0	0
Ni+2	Na+	0	0	0	0	0
AlO2-	NO3-	0.038	0	0	0	0
AlO2-	OH-	0.014	0	0	0	0
Br-	Cl-	0	0	0	0	0
Br-	OH-	-0.065	0	0	0	0
Cl-	ClO4-	0.0341	0	0	0	0
Cl-	CO3-2	-0.092	0	0	0	0
Cl-	HCO3-	0.0359	0	0	0	0
Cl-	HSO4-	-0.006	0	0	0	0
Cl-	NO3-	0.016	0	0	0	0
Cl-	OH-	-0.05	0	0	0	0
ClO4-	OH-	-0.032	0	0	0	0
Cl-	SO4-2	0.0703279	182.513	1.32573	-0.00233223	0
ClO4-	SO4-2	0.02	0	0	0	0
CO3-2	HCO3-	-0.04	0	0	0	0
CO3-2	OH-	0.1	0	0	0	0
CO3-2	SO4-2	0.02	0	0	0	0
CO3-2	ClO4-	0.07	0	0	0	0
HCO3-	SO4-2	0.01	0	0	0	0
HCO3-	ClO4-	0.081	0	0	0	0
HSO4-	SO4-2	-0.116842	-3090.83	-14.002	0.0154028	0
OH-	SO4-2	-0.013	0	0	0	0
OH-	Cr(OH)4-	0.014	0	0	0	0
Cl-	CrO4-2	0.02	0	0	0	0
Cl-	Cr2O7-2	0.1	0	0	0	0
Br-	Cr2O7-2	-0.05	0	0	0	0
Cl-	MoO4-2	0.035	0	0	0	0
SO4-2	B(OH)4-	-0.012	0	0	0	0
SO4-2	B3O3(OH)4-	0.1	0	0	0	0
SO4-2	B4O5(OH)4-2	0.12	0	0	0	0
Cl-	B(OH)4-	-0.065	0	0	0	0
Cl-	B3O3(OH)4-	0.12	0	0	0	0
Cl-	B4O5(OH)4-2	0.074	0	0	0	0
HCO3-	B3O3(OH)4-	-0.1	0	0	0	0
HCO3-	B4O5(OH)4-2	-0.087	0	0	0	0
-LAMDA
Ca+2	CO2	0.23088	554.03	2.36157	-0.00253647	0
H+	CO2	0	0	0	0	0
K+	CO2	0.11544	277.015	1.18078	-0.00126824	0
Mg+2	CO2	0.23088	554.03	2.36157	-0.00253647	0
Na+	CO2	0.11544	277.015	1.18078	-0.00126824	0
Al+3	O2	0.3095	0	0	0	0
Ba+2	O2	0.285	0	0	0	0
Ca+2	O2	0.2497	0	0	0	0
H+	O2	0.0352846	81.45	-8.09461e-011	1.21206e-013	0
K+	O2	0.151915	199.431	7.64677e-010	-1.14341e-012	0
Li+	O2	0.149	0	0	0	0
Mg+2	O2	0.229806	305.513	-2.15815e-010	3.23403e-013	0
Na+	O2	0.160236	72.8644	-0.616311	0.0018462	0
NH4+	O2	0.0751	0	0	0	0
H+	SiO2	0	0	0	0	0
Mg+2	SiO2	0.0821096	-3.83318e-009	-2.32691e-011	-0.0018133	0
Na+	SiO2	-0.0788994	-1.43923e-007	-8.63577e-010	0.000118667	0
H+	H3PO4	0.29	0	0	0	0
Cl-	CO2	0	0	0	0	0
SO4-2	CO2	0.0938551	640.652	2.19629	-0.00183326	0
Cl-	O2	0	0	0	0	0
Br-	O2	-0.0347	0	0	0	0
CO3-2	O2	0.0964892	-277.074	2.03006e-010	-3.0343e-013	0
HCO3-	O2	0.0854	0	0	0	0
I-	O2	-0.0744	0	0	0	0
NO3-	O2	-0.0377	0	0	0	0
OH-	O2	0.0522254	15.571	-2.74032e-010	4.10103e-013	0
SO4-2	O2	0.0877744	-274.085	1.32907e-009	-1.98728e-012	0
ClO4-	CO2	-0.07	0	0	0	0
Cl-	SiO2	0.142309	167.356	1.50701	-0.00321903	0
NO3-	SiO2	0.134079	6301.5	35.5262	-0.0502191	0
SO4-2	SiO2	0.0775993	1.55517e-007	9.33172e-010	0.00055333	0
H2PO4-	H3PO4	-0.4	0	0	0	0
CO2	CO2	-0.0114856	1172.99	5.6247	-0.00680013	0
CaCl2	CaCl2	3.7094	5485.62	-1.01905e-010	0.0199031	0
H3PO4	H3PO4	0.0503	0	0	0	0
SiO2	SiO2	0	0	0	0	0
CO2	SiO2	0	0	0	0	0
-ZETA
Na+	Cl-	CO2	-0.00756938	0	0	6.05286e-006	0
Na+	SO4-2	CO2	-0.0105	0	0	0	0
Ba+2	Cl-	O2	0	0	0	0	0
Ca+2	Cl-	O2	-0.0169	0	0	0	0
Ca+2	NO3-	O2	0	0	0	0	0
H+	Cl-	O2	-0.0077	0	0	0	0
K+	Br-	O2	-0.00541	0	0	0	0
K+	Cl-	O2	-0.0211	0	0	0	0
K+	OH-	O2	-0.00706412	-15.075	-0.0452072	4.50985e-005	0
K+	NO3-	O2	-0.0281	0	0	0	0
K+	SO4-2	O2	0	0	0	0	0
Li+	Cl-	O2	0	0	0	0	0
Na+	Br-	O2	-0.00909	0	0	0	0
Na+	Cl-	O2	-0.00918665	-2.739	3.25992e-011	-4.87959e-014	0
Na+	CO3-2	O2	-0.0181	0	0	0	0
Na+	HCO3-	O2	0	0	0	0	0
Na+	NO3-	O2	-0.012	0	0	0	0
Na+	OH-	O2	-0.0125	0	0	0	0
Na+	SO4-2	O2	-0.046	0	0	0	0
NH4+	SO4-2	O2	0	0	0	0	0
H+	NO3-	SiO2	-0.0033	0	0	0	0
Mg+2	Cl-	SiO2	-0.0514692	1.49594e-008	8.98686e-011	0.000594133	0
Na+	Cl-	SiO2	-8.47766e-015	-1.84314e-008	-1.10633e-010	-0.0002	0
-PSI
Ca+2	K+	Cl-	-0.043189	-27.0771	-3.63798e-012	3.55271e-015	0
Ca+2	Na+	Cl-	-0.003	0	1.13687e-013	-6.66134e-016	0
Ca+2	Na+	SO4-2	-0.012	0	4.54747e-013	-2.66454e-015	0
K+	Mg+2	Cl-	-0.022	-14.27	0	0	0
K+	Na+	Cl-	-0.00369149	-5.10213	-3.41061e-013	6.66134e-016	0
K+	Na+	SO4-2	0.00732101	-71.6091	-0.394156	0.000606679	0
Mg+2	Na+	Cl-	-0.012	-9.51	0	0	0
H+	Na+	HSO4-	-0.0129	0	0	0	0
H+	Na+	ClO4-	-0.016	0	0	0	0
Ca+2	Na+	ClO4-	-0.02	0	0	0	0
Na+	HCO3-	ClO4-	-0.019	0	0	0	0
Cr+3	Na+	Cl-	0.01	0	0	0	0
Cr+3	K+	Cl-	-0.01	0	0	0	0
Cs+	Na+	ClO4-	0.0026	0	0	0	0
Cs+	Na+	Cl-	-0.00135	0	0	0	0
Cs+	Na+	SO4-2	0.0023	0	0	0	0
Cs+	K+	Cl-	-0.0013	0	0	0	0
Cs+	K+	SO4-2	-0.0042	0	0	0	0
Cs+	Mg+2	Cl-	-0.044	0	0	0	0
Cs+	Mg+2	SO4-2	-0.08	0	0	0	0
Al+3	K+	Cl-	-0.06	0	0	0	0
Al+3	Mg+2	Cl-	-0.024	0	0	0	0
Ba+2	H+	Cl-	-0.0081	0	0	0	0
Na+	Co+2	Cl-	-0.0056	0	0	0	0
Ca+2	Co+2	Cl-	-0.0332	0	0	0	0
Co+2	K+	Cl-	-0.0315	0	0	0	0
Co+2	H+	Cl-	0.0075	0	0	0	0
Cu+2	Na+	Cl-	-0.0129	0	0	0	0
Cu+2	Na+	SO4-2	-0.0235	0	0	0	0
Cu+2	K+	Cl-	-0.001	0	0	0	0
Cu+2	K+	SO4-2	0.06	0	0	0	0
Cu+2	H+	HSO4-	-0.019	0	0	0	0
Mg+2	H+	Cl-	-0.011	0	0	0	0
Mg+2	MgOH+	Cl-	0.028	0	0	0	0
Na+	Mn+2	Cl-	-0.019	0	0	0	0
Ni+2	H+	Cl-	0.0044	0	0	0	0
Ni+2	K+	Cl-	-0.031	0	0	0	0
Ni+2	K+	SO4-2	-0.069	0	0	0	0
Ni+2	Na+	SO4-2	-0.015	0	0	0	0
Ni+2	H+	Br-	0.06	0	0	0	0
Ca+2	Cl-	SO4-2	-0.018	-6.98492e-010	-2.72848e-012	1.77636e-015	0
K+	Cl-	SO4-2	-0.00161523	37.562	2.89901e-012	0.000284698	0
Mg+2	Cl-	SO4-2	-0.00796	32.63	0	0	0
Na+	AlO2-	NO3-	0.0066	0	0	0	0
Na+	Cl-	NO3-	-0.006	0	0	0	0
Na+	HCO3-	Cl-	-0.0143	0	0	0	0
Na+	CO3-2	Cl-	0.016	0	0	0	0
Na+	AlO2-	OH-	-0.0048	0	0	0	0
Na+	Cl-	OH-	-0.00601	-9.93	0	0	0
Na+	Cl-	SO4-2	-0.00908855	-78.6142	-0.551999	0.000946106	0
Na+	HSO4-	SO4-2	0.0143653	258.084	1.16444	-0.00125524	0
Na+	OH-	SO4-2	-0.0091	-11.69	0	0	0
H+	HSO4-	SO4-2	0.02781	0	0	0	0
Na+	ClO4-	SO4-2	0.0014	0	0	0	0
Na+	B(OH)4-	Cl-	-0.0073	0	0	0	0
Cs+	ClO4-	Cl-	0.0023	0	0	0	0
Na+	ClO4-	Cl-	-0.0057	0	0	0	0
Na+	B3O3(OH)4-	Cl-	-0.024	0	0	0	0
Na+	B4O5(OH)4-2	Cl-	0.026	0	0	0	0
Na+	OH-	Cr(OH)4-	-0.0048	0	0	0	0
K+	Cl-	CrO4-2	0.035	0	0	0	0
Na+	Cl-	CrO4-2	-0.004	0	0	0	0
K+	Cl-	Cr2O7-2	-0.7	0	0	0	0
K+	Br-	Cr2O7-2	-0.7	0	0	0	0
K+	SO4-2	Cr2O7-2	-0.7	0	0	0	0
Cu+2	Cl-	SO4-2	0.01	0	0	0	0
Na+	Cl-	MoO4-2	0.0032	0	0	0	0
-MU
CO2	CO2	CO2	0	0	0	0	0
CaCl2	CaCl2	CaCl2	0	0	0	0	0
H3PO4	H3PO4	H3PO4	0.0109	0	0	0	0
SiO2	SiO2	SiO2	0	0	0	0	0
CO2	CO2	SiO2	0	0	0	0	0
SiO2	SiO2	CO2	0	0	0	0	0
-ETA
PHASES
Albite
	AlNaO8Si3 + 4 H+ = 1 Al+3 + 1 Na+ + 2 H2O + 3 SiO2
	logk	2.8495
	-analytical	-42.136	-0.0137224	4440.75	13.7811	64.9546
Alunite
	Al3H6KO14S2 + 6 H+ = 1 K+ + 2 SO4-2 + 3 Al+3 + 6 H2O
	logk	-2.4018
	-analytical	-681.181	-0.222279	25696	266.222	393.838
Amesite-7A
	Al2H4Mg2O9Si + 10 H+ = 1 SiO2 + 2 Al+3 + 2 Mg+2 + 7 H2O
	logk	39.1427
	-analytical	-414.29	-0.0953254	32230.7	151.016	499.288
Amesite-14A
	Al4H8Mg4O18Si2 + 20 H+ = 2 SiO2 + 4 Al+3 + 4 Mg+2 + 14 H2O
	logk	71.5387
	-analytical	-818.692	-0.189557	62349.9	298.04	965.637
Analcime
	Al0.96H2Na0.96O7Si2.04 + 3.84 H+ = 0.96 Al+3 + 0.96 Na+ + 2.04 SiO2 + 2.92 H2O
	logk	6.0057
	-analytical	-101.299	-0.0242806	7219.04	36.4798	109.295
Analcime-dehy
	Al0.96Na0.96O6Si2.04 + 3.84 H+ = 0.96 Al+3 + 0.96 Na+ + 1.92 H2O + 2.04 SiO2
	logk	12.3685
	-analytical	-41.2622	-0.000938825	8092.99	10.7925	123.08
Anhydrite
	CaO4S = 1 Ca+2 + 1 SO4-2
	logk	-4.3193